10
residue_44.pdb
N         49.81100       23.76600       55.36300
H         50.62400       23.33500       55.77900
C         49.33700       22.87400       54.25300
H         48.24900       22.89700       54.19400
C         49.85900       23.50100       52.98700
H         50.94100       23.46500       52.86400
H         49.40000       24.48900       52.97200
H         49.39300       22.82600       52.26900
C         49.93000       21.44700       54.41200
O         51.02100       21.22100       54.90700
