11
residue_46.pdb
N         74.40300       69.31000       56.17600
H         73.50500       69.66000       56.47500
C         75.50100       70.29600       55.97700
H         76.26300       69.78200       55.39200
C         74.93300       71.40600       55.15600
H         75.75900       71.86900       54.61500
H         74.30100       70.96700       54.38400
O         74.19200       72.30600       55.95100
H         73.88900       72.92000       55.27800
C         76.15800       70.85000       57.20500
O         77.30800       71.28700       57.18100
