30
water_residue_46.pdb
O         76.53900       65.79200       49.63600
H         76.35500       64.99300       50.12900
H         75.74700       66.32100       49.73400
O         69.44000       63.97600       44.89100
H         69.84500       63.11000       44.82800
H         69.53900       64.35100       44.01600
O         77.54400       62.99500       46.21300
H         76.62100       63.19000       46.05100
H         77.89400       63.79500       46.60400
O         70.95700       61.63700       44.81800
H         71.07800       60.83900       45.33100
H         71.06600       61.35700       43.91000
O         70.06100       64.91500       47.70800
H         70.10400       64.39400       46.90600
H         69.13700       64.89500       47.95700
O         75.98000       61.85900       43.80700
H         76.88400       61.78000       44.11200
H         75.45600       61.47500       44.51000
O         73.43200       65.61600       47.77400
H         72.63800       66.01100       47.41200
H         73.90800       66.34900       48.16300
O         73.80000       63.42400       43.02000
H         73.17300       62.73300       42.80600
H         74.42400       63.00400       43.61300
O         75.58700       59.60400       45.51400
H         75.67600       59.15600       46.35500
H         75.68300       58.91100       44.86100
O         71.65100       59.06500       46.38300
H         72.24200       59.03800       47.13600
H         70.77700       58.96200       46.76100
