27
water_residue_44.pdb
O         54.57700       22.28300       53.55900
H         53.91600       21.80900       53.05500
H         54.60500       21.83000       54.40300
O         48.67400       20.55100       50.85900
H         48.89900       21.08800       50.10000
H         48.33900       19.73500       50.48600
O         52.16100       25.37700       50.56200
H         51.65100       25.97000       51.11300
H         52.74700       24.92900       51.17200
O         46.60000       22.40400       51.41800
H         46.94700       21.54000       51.19500
H         46.54500       22.86400       50.58100
O         45.75400       22.32100       53.98800
H         44.82800       22.32900       53.74900
H         46.21600       22.21200       53.15600
O         53.97100       24.94500       52.51900
H         54.25400       24.13700       52.94700
H         53.53500       25.44300       53.21100
O         52.99100       23.60700       57.74500
H         53.37800       22.73300       57.77900
H         52.09200       23.48200       58.05100
O         53.30100       20.15200       55.66800
H         53.16200       19.31500       55.22600
H         52.49800       20.64700       55.50200
O         50.84300       27.04300       52.43400
H         51.20500       26.63300       53.22000
H         50.14800       27.61300       52.76200
